units(length='cm', time='s', quantity='mol', act_energy='kcal/mol')

ideal_gas(name='gas',
          elements="H D T C Ci O Oi N Ne Ar He Si S F Cl Br I X",
          species="""Ar          Ne          DMF(1)      O2(2)
                     H(3)        H2(4)       OH(5)       O(6)
                     H2O(7)      HO2(8)      VA(13)      C4H3(17)
                     hcccch(19)  hcch(20)    C2H4(22)    CH3(23)
                     HCO(24)     CH3CO(25)   C2H3(27)    CH2O(29)
                     CH2CO(30)   CO(32)      C2H6(51)    C2H5(52)
                     HCCO(65)    CHCHO(70)   C2H(72)     C3H3(74)
                     C3H5(103)   C3H6(104)   C4H5(115)   C4H5(116)
                     C5H6(119)   C5H7(312)   C5H5O(324)  C5H5O(335)
                     C5H7(338)   C5H5O(781)  C4H5(782)   S(1229)
                     S(1230)     S(1232)     S(1238)     S(1240)
                     S(1242)     S(1248)     S(1259)     S(1265)
                     S(1276)     S(1278)     S(1295)     S(1378)
                     S(1384)     S(1407)     S(1542)     S(1777)
                     S(1819)     S(1820)     S(1941)     C4H5(1950)
                     C4H5(1952)  S(2376)     S(2441)     S(2446)
                     S(4561)     S(4611)     S(4619)     S(4651)
                     S(5057)     S(10821)    S(11900)    S(11908)""",
          reactions='all',
          transport='Mix',
          initial_state=state(temperature=300.0, pressure=OneAtm))

#-------------------------------------------------------------------------------
# Element data
#-------------------------------------------------------------------------------

element(symbol='Ci', atomic_mass=13.003)
element(symbol='D', atomic_mass=2.014)
element(symbol='Oi', atomic_mass=17.999)
element(symbol='T', atomic_mass=3.016)
element(symbol='X', atomic_mass=195.083)
#-------------------------------------------------------------------------------
# Species data
#-------------------------------------------------------------------------------

species(name='Ar',
        atoms='Ar:1',
        thermo=(NASA([200.00, 1000.00],
                     [ 2.50000000E+00,  0.00000000E+00,  0.00000000E+00,
                       0.00000000E+00,  0.00000000E+00, -7.45375000E+02,
                       4.37967000E+00]),
                NASA([1000.00, 6000.00],
                     [ 2.50000000E+00,  0.00000000E+00,  0.00000000E+00,
                       0.00000000E+00,  0.00000000E+00, -7.45375000E+02,
                       4.37967000E+00])),
        transport=gas_transport(geom='atom',
                                diam=3.33,
                                well_depth=136.501))

species(name='Ne',
        atoms='Ne:1',
        thermo=(NASA([200.00, 1000.00],
                     [ 2.50000000E+00,  0.00000000E+00,  0.00000000E+00,
                       0.00000000E+00,  0.00000000E+00, -7.45375000E+02,
                       3.35532000E+00]),
                NASA([1000.00, 6000.00],
                     [ 2.50000000E+00,  0.00000000E+00,  0.00000000E+00,
                       0.00000000E+00,  0.00000000E+00, -7.45375000E+02,
                       3.35532000E+00])),
        transport=gas_transport(geom='atom',
                                diam=3.758,
                                well_depth=148.6))

species(name='DMF(1)',
        atoms='C:6 H:8 O:1',
        thermo=(NASA([100.00, 1161.10],
                     [ 1.99133396E+00,  3.54232549E-02,  1.19151728E-05,
                      -2.89684283E-08,  1.01551786E-11, -1.56499619E+04,
                       2.05319392E+01]),
                NASA([1161.10, 5000.00],
                     [ 8.48466144E+00,  3.48738198E-02, -1.55637920E-05,
                       2.99410035E-09, -2.11585278E-13, -1.86286970E+04,
                      -1.80983687E+01])),
        transport=gas_transport(geom='nonlinear',
                                diam=6.234,
                                well_depth=459.324))

species(name='O2(2)',
        atoms='O:2',
        thermo=(NASA([100.00, 1074.55],
                     [ 3.53732243E+00, -1.21571654E-03,  5.31620277E-06,
                      -4.89446463E-09,  1.45846270E-12, -1.03858849E+03,
                       4.68368181E+00]),
                NASA([1074.55, 5000.00],
                     [ 3.15382078E+00,  1.67804376E-03, -7.69974267E-07,
                       1.51275469E-10, -1.08782420E-14, -1.04081727E+03,
                       6.16755850E+00])),
        transport=gas_transport(geom='linear',
                                diam=3.458,
                                well_depth=107.4,
                                polar=1.6,
                                rot_relax=3.8))

species(name='H(3)',
        atoms='H:1',
        thermo=(NASA([100.00, 4101.03],
                     [ 2.50000000E+00,  1.56839909E-13, -2.12371896E-16,
                       9.39504946E-20, -1.27958334E-23,  2.54742178E+04,
                      -4.44972896E-01]),
                NASA([4101.03, 5000.00],
                     [ 2.49999696E+00,  2.82830243E-09, -9.83483362E-13,
                       1.51619205E-16, -8.74287095E-21,  2.54742204E+04,
                      -4.44953778E-01])),
        transport=gas_transport(geom='atom',
                                diam=2.05,
                                well_depth=145.0))

species(name='H2(4)',
        atoms='H:2',
        thermo=(NASA([100.00, 1959.10],
                     [ 3.43536477E+00,  2.12704667E-04, -2.78612148E-07,
                       3.40257051E-10, -7.76006950E-14, -1.03135988E+03,
                      -3.90841983E+00]),
                NASA([1959.10, 5000.00],
                     [ 2.78809738E+00,  5.87729871E-04,  1.58968784E-07,
                      -5.52655469E-11,  4.34250082E-15, -5.96103883E+02,
                       1.13138407E-01])),
        transport=gas_transport(geom='linear',
                                diam=2.92,
                                well_depth=38.0,
                                polar=0.79,
                                rot_relax=280.0))

species(name='OH(5)',
        atoms='H:1 O:1',
        thermo=(NASA([100.00, 1145.75],
                     [ 3.51456802E+00,  2.92776204E-05, -5.32164197E-07,
                       1.01949126E-09, -3.85945553E-13,  3.41425420E+03,
                       2.10434892E+00]),
                NASA([1145.75, 5000.00],
                     [ 3.07193997E+00,  6.04015429E-04, -1.39781437E-08,
                      -2.13446439E-11,  2.48065934E-15,  3.57938669E+03,
                       4.57799915E+00])),
        transport=gas_transport(geom='linear',
                                diam=2.75,
                                well_depth=80.0))

species(name='O(6)',
        atoms='O:1',
        thermo=(NASA([100.00, 4101.03],
                     [ 2.50000000E+00,  1.56839909E-13, -2.12371896E-16,
                       9.39504946E-20, -1.27958334E-23,  2.92302441E+04,
                       5.12616427E+00]),
                NASA([4101.03, 5000.00],
                     [ 2.49999696E+00,  2.82830243E-09, -9.83483362E-13,
                       1.51619205E-16, -8.74287095E-21,  2.92302467E+04,
                       5.12618339E+00])),
        transport=gas_transport(geom='atom',
                                diam=2.75,
                                well_depth=80.0))

species(name='H2O(7)',
        atoms='H:2 O:1',
        thermo=(NASA([100.00, 1130.24],
                     [ 4.05763610E+00, -7.87938872E-04,  2.90878480E-06,
                      -1.47520039E-09,  2.12847508E-13, -3.02815866E+04,
                      -3.11365027E-01]),
                NASA([1130.24, 5000.00],
                     [ 2.84324866E+00,  2.75108838E-03, -7.81033120E-07,
                       1.07244016E-10, -5.79395309E-15, -2.99586120E+04,
                       5.91043012E+00])),
        transport=gas_transport(geom='nonlinear',
                                diam=2.605,
                                well_depth=572.402,
                                dipole=1.844,
                                rot_relax=4.0))

species(name='HO2(8)',
        atoms='H:1 O:2',
        thermo=(NASA([100.00, 923.91],
                     [ 4.02955995E+00, -2.63985117E-03,  1.52230260E-05,
                      -1.71671348E-08,  6.26738127E-12,  3.22677278E+02,
                       4.84427976E+00]),
                NASA([923.91, 5000.00],
                     [ 4.15133246E+00,  1.91146027E-03, -4.11274217E-07,
                       6.34957042E-11, -4.86384883E-15,  8.34207827E+01,
                       3.09340763E+00])),
        transport=gas_transport(geom='nonlinear',
                                diam=3.458,
                                well_depth=107.4,
                                rot_relax=1.0))

species(name='VA(13)',
        atoms='C:4 H:4',
        thermo=(NASA([100.00, 955.23],
                     [ 2.87088212E+00,  1.82036444E-02,  1.06732727E-05,
                      -2.72521678E-08,  1.19491048E-11,  3.30238430E+04,
                       1.12932623E+01]),
                NASA([955.23, 5000.00],
                     [ 8.52636024E+00,  1.08964396E-02, -3.56581320E-06,
                       6.31283494E-10, -4.51924310E-14,  3.11963073E+04,
                      -1.96425769E+01])),
        transport=gas_transport(geom='nonlinear',
                                diam=5.18,
                                well_depth=357.002,
                                rot_relax=1.0))

species(name='C4H3(17)',
        atoms='C:4 H:3',
        thermo=(NASA([100.00, 841.13],
                     [ 2.59158211E+00,  3.24210827E-02, -4.06216928E-05,
                       2.88907106E-08, -8.35932509E-12,  5.78501984E+04,
                       1.24990333E+01]),
                NASA([841.13, 5000.00],
                     [ 6.74048008E+00,  1.26892219E-02, -5.43045064E-06,
                       9.96207551E-10, -6.78094101E-14,  5.71523077E+04,
                      -6.79883713E+00])),
        transport=gas_transport(geom='nonlinear',
                                diam=5.18,
                                well_depth=357.002,
                                rot_relax=1.0))

species(name='hcccch(19)',
        atoms='C:4 H:2',
        thermo=(NASA([100.00, 1061.12],
                     [ 2.01411631E+00,  3.10619653E-02, -3.68578710E-05,
                       2.21631863E-08, -5.16370522E-12,  5.35900904E+04,
                       1.03657989E+01]),
                NASA([1061.12, 5000.00],
                     [ 8.53383601E+00,  6.48510838E-03, -2.11585428E-06,
                       3.35827372E-10, -2.11540270E-14,  5.22064556E+04,
                      -2.14748331E+01])),
        transport=gas_transport(geom='linear',
                                diam=5.18,
                                well_depth=357.002,
                                rot_relax=1.0))

species(name='hcch(20)',
        atoms='C:2 H:2',
        thermo=(NASA([100.00, 962.79],
                     [ 3.11333122E+00,  6.02044110E-03,  5.33083838E-06,
                      -1.10300462E-08,  4.62891228E-12,  2.62179840E+04,
                       4.37934056E+00]),
                NASA([962.79, 5000.00],
                     [ 5.02073654E+00,  4.22477391E-03, -1.42004277E-06,
                       2.56114972E-10, -1.84553060E-14,  2.55666360E+04,
                      -6.22565596E+00])),
        transport=gas_transport(geom='linear',
                                diam=4.1,
                                well_depth=209.001,
                                rot_relax=2.5))

species(name='C2H4(22)',
        atoms='C:2 H:4',
        thermo=(NASA([100.00, 979.35],
                     [ 3.97471641E+00, -4.75844716E-03,  4.16783925E-05,
                      -4.51392723E-08,  1.54224851E-11,  4.91540744E+03,
                       3.62430717E+00]),
                NASA([979.35, 5000.00],
                     [ 3.55660475E+00,  1.10627487E-02, -4.17019213E-06,
                       7.85587085E-10, -5.70061091E-14,  4.32046545E+03,
                       2.17720235E+00])),
        transport=gas_transport(geom='nonlinear',
                                diam=3.971,
                                well_depth=280.801,
                                rot_relax=1.5))

species(name='CH3(23)',
        atoms='C:1 H:3',
        thermo=(NASA([100.00, 697.66],
                     [ 3.96043154E+00,  5.92933161E-04,  8.78577868E-06,
                      -9.88034016E-09,  3.63236227E-12,  1.64218817E+04,
                       3.39863654E-01]),
                NASA([697.66, 5000.00],
                     [ 3.09511239E+00,  5.55429763E-03, -1.88158781E-06,
                       3.13334818E-10, -2.05195008E-14,  1.65426190E+04,
                       4.20297598E+00])),
        transport=gas_transport(geom='nonlinear',
                                diam=3.8,
                                well_depth=144.001))

species(name='HCO(24)',
        atoms='C:1 H:1 O:1',
        thermo=(NASA([100.00, 1112.12],
                     [ 4.05936001E+00, -1.73841827E-03,  9.14965735E-06,
                      -8.01113041E-09,  2.25730008E-12,  3.84377635E+03,
                       3.32451171E+00]),
                NASA([1112.12, 5000.00],
                     [ 3.05138798E+00,  4.11702171E-03, -1.75584045E-06,
                       3.29297301E-10, -2.29169528E-14,  3.93006764E+03,
                       7.67449462E+00])),
        transport=gas_transport(geom='nonlinear',
                                diam=3.59,
                                well_depth=498.002))

species(name='CH3CO(25)',
        atoms='C:2 H:3 O:1',
        thermo=(NASA([100.00, 1011.57],
                     [ 3.63677942E+00,  4.50842228E-03,  1.80295641E-05,
                      -2.25970781E-08,  7.88628654E-12, -2.54495153E+03,
                       9.39482470E+00]),
                NASA([1011.57, 5000.00],
                     [ 4.39399803E+00,  1.04823730E-02, -4.12727485E-06,
                       7.69397452E-10, -5.45059539E-14, -3.15699295E+03,
                       3.46498549E+00])),
        transport=gas_transport(geom='nonlinear',
                                diam=3.97,
                                well_depth=436.001,
                                rot_relax=2.0))

species(name='C2H3(27)',
        atoms='C:2 H:3',
        thermo=(NASA([100.00, 956.68],
                     [ 3.83147535E+00, -7.47622097E-04,  2.72395055E-05,
                      -3.26064194E-08,  1.18618541E-11,  3.44534839E+04,
                       5.55908259E+00]),
                NASA([956.68, 5000.00],
                     [ 4.81082816E+00,  6.59346181E-03, -2.20134354E-06,
                       4.04599430E-10, -2.98100705E-14,  3.37427722E+04,
                      -1.85747468E+00])),
        transport=gas_transport(geom='nonlinear',
                                diam=4.1,
                                well_depth=209.001,
                                rot_relax=1.0))

species(name='CH2O(29)',
        atoms='C:1 H:2 O:1',
        thermo=(NASA([100.00, 1070.45],
                     [ 4.12927222E+00, -4.08394602E-03,  2.03227061E-05,
                      -1.83521409E-08,  5.37964035E-12, -1.44294637E+04,
                       3.22420549E+00]),
                NASA([1070.45, 5000.00],
                     [ 2.21175606E+00,  7.94260439E-03, -3.34190089E-06,
                       6.28464499E-10, -4.40425783E-14, -1.42974594E+04,
                       1.13047194E+01])),
        transport=gas_transport(geom='nonlinear',
                                diam=3.59,
                                well_depth=498.002,
                                rot_relax=2.0))

species(name='CH2CO(30)',
        atoms='C:2 H:2 O:1',
        thermo=(NASA([100.00, 954.86],
                     [ 3.48301857E+00,  8.32989638E-03,  5.93418598E-06,
                      -1.33939536E-08,  5.73133650E-12, -7.31353165E+03,
                       6.51898212E+00]),
                NASA([954.86, 5000.00],
                     [ 5.88245502E+00,  5.80172731E-03, -1.91265881E-06,
                       3.35917336E-10, -2.37397920E-14, -8.11472991E+03,
                      -6.74200970E+00])),
        transport=gas_transport(geom='nonlinear',
                                diam=3.97,
                                well_depth=436.001,
                                rot_relax=2.0))

species(name='CO(32)',
        atoms='C:1 O:1',
        thermo=(NASA([100.00, 1571.63],
                     [ 3.56838028E+00, -8.52128494E-04,  2.48918555E-06,
                      -1.56331751E-09,  3.13597403E-13, -1.42842550E+04,
                       3.57912067E+00]),
                NASA([1571.63, 5000.00],
                     [ 2.91305532E+00,  1.64659465E-03, -6.88623306E-07,
                       1.21039169E-10, -7.84031902E-15, -1.41808786E+04,
                       6.71052375E+00])),
        transport=gas_transport(geom='linear',
                                diam=3.65,
                                well_depth=98.1,
                                polar=1.95,
                                rot_relax=1.8))

species(name='C2H6(51)',
        atoms='C:2 H:6',
        thermo=(NASA([100.00, 1012.42],
                     [ 3.72238711E+00,  1.65090748E-03,  3.44173098E-05,
                      -3.76855072E-08,  1.24449318E-11, -1.15575899E+04,
                       4.68250076E+00]),
                NASA([1012.42, 5000.00],
                     [ 2.82850762E+00,  1.73040145E-02, -6.73331816E-06,
                       1.23741453E-09, -8.65671680E-14, -1.19978187E+04,
                       5.93797588E+00])),
        transport=gas_transport(geom='nonlinear',
                                diam=4.302,
                                well_depth=252.301,
                                rot_relax=1.5))

species(name='C2H5(52)',
        atoms='C:2 H:5',
        thermo=(NASA([100.00, 1006.87],
                     [ 3.68745416E+00,  3.06903086E-03,  2.55868378E-05,
                      -2.94070406E-08,  9.94049912E-12,  1.31153653E+04,
                       6.96688878E+00]),
                NASA([1006.87, 5000.00],
                     [ 3.53785743E+00,  1.37310835E-02, -5.29560032E-06,
                       9.71472005E-10, -6.80280505E-14,  1.26351590E+04,
                       5.15539375E+00])),
        transport=gas_transport(geom='nonlinear',
                                diam=4.302,
                                well_depth=252.301,
                                rot_relax=1.5))

species(name='HCCO(65)',
        atoms='C:2 H:1 O:1',
        thermo=(NASA([100.00, 1026.66],
                     [ 3.46982722E+00,  1.03257357E-02, -7.56141038E-06,
                       2.00944470E-09,  1.02736159E-13,  2.01482281E+04,
                       7.08725032E+00]),
                NASA([1026.66, 5000.00],
                     [ 5.77906619E+00,  3.70727501E-03, -1.36679920E-06,
                       2.43623010E-10, -1.67889158E-14,  1.95487093E+04,
                      -4.72476403E+00])),
        transport=gas_transport(geom='nonlinear',
                                diam=2.5,
                                well_depth=150.001,
                                rot_relax=1.0))

species(name='CHCHO(70)',
        atoms='C:2 H:2 O:1',
        thermo=(NASA([100.00, 969.37],
                     [ 3.32149151E+00,  9.95664889E-03,  8.23435985E-06,
                      -1.92979289E-08,  8.37432711E-12,  1.81505847E+04,
                       9.47666926E+00]),
                NASA([969.37, 5000.00],
                     [ 7.73871524E+00,  3.93412696E-03, -1.33177551E-06,
                       2.69004957E-10, -2.15537579E-14,  1.67207735E+04,
                      -1.46541857E+01])),
        transport=gas_transport(geom='nonlinear',
                                diam=3.97,
                                well_depth=436.0,
                                rot_relax=2.0))

species(name='C2H(72)',
        atoms='C:2 H:1',
        thermo=(NASA([100.00, 922.68],
                     [ 3.03026738E+00,  1.29439714E-02, -2.68245275E-05,
                       2.61675073E-08, -9.14584467E-12,  6.69480668E+04,
                       5.73779667E+00]),
                NASA([922.68, 5000.00],
                     [ 3.48300477E+00,  4.30390367E-03, -1.92300708E-06,
                       3.31984203E-10, -2.05599720E-14,  6.71487554E+04,
                       5.13030125E+00])),
        transport=gas_transport(geom='linear',
                                diam=4.1,
                                well_depth=209.001,
                                rot_relax=2.5))

species(name='C3H3(74)',
        atoms='C:3 H:3',
        thermo=(NASA([100.00, 949.37],
                     [ 3.09018471E+00,  1.73588577E-02, -8.30777165E-06,
                      -2.47848990E-09,  2.58708163E-12,  4.07558456E+04,
                       8.11427701E+00]),
                NASA([949.37, 5000.00],
                     [ 6.99886206E+00,  7.24417963E-03, -2.36572630E-06,
                       3.98593268E-10, -2.69785242E-14,  3.97273550E+04,
                      -1.20477788E+01])),
        transport=gas_transport(geom='nonlinear',
                                diam=4.76,
                                well_depth=252.0,
                                rot_relax=1.0))

species(name='C3H5(103)',
        atoms='C:3 H:5',
        thermo=(NASA([100.00, 942.17],
                     [ 3.29618728E+00,  5.79172404E-03,  4.33939283E-05,
                      -5.99915891E-08,  2.33826340E-11,  1.89082129E+04,
                       9.01979498E+00]),
                NASA([942.17, 5000.00],
                     [ 8.06849838E+00,  1.01838861E-02, -2.84807906E-06,
                       5.00911608E-10, -3.79654770E-14,  1.69147372E+04,
                      -1.95264192E+01])),
        transport=gas_transport(geom='nonlinear',
                                diam=4.85,
                                well_depth=260.001,
                                rot_relax=1.0))

species(name='C3H6(104)',
        atoms='C:3 H:6',
        thermo=(NASA([100.00, 983.75],
                     [ 3.31912882E+00,  8.17949267E-03,  3.34739500E-05,
                      -4.36198164E-08,  1.58215311E-11,  7.49324994E+02,
                       9.54022275E+00]),
                NASA([983.75, 5000.00],
                     [ 5.36752189E+00,  1.70743528E-02, -6.35110571E-06,
                       1.16620226E-09, -8.27626068E-14, -4.87125845E+02,
                      -4.54450743E+00])),
        transport=gas_transport(geom='nonlinear',
                                diam=4.982,
                                well_depth=266.801,
                                rot_relax=1.0))

species(name='C4H5(115)',
        atoms='C:4 H:5',
        thermo=(NASA([100.00, 937.74],
                     [ 2.64247592E+00,  1.63346712E-02,  3.86188824E-05,
                      -6.71326842E-08,  2.83580340E-11,  4.17296397E+04,
                       1.32823008E+01]),
                NASA([937.74, 5000.00],
                     [ 1.29707196E+01,  6.69083668E-03, -1.00045192E-06,
                       1.67541452E-10, -1.71386166E-14,  3.82795839E+04,
                      -4.39489471E+01])),
        transport=gas_transport(geom='nonlinear',
                                diam=5.18,
                                well_depth=357.002,
                                rot_relax=1.0))

species(name='C4H5(116)',
        atoms='C:4 H:5',
        thermo=(NASA([100.00, 966.65],
                     [ 2.67736346E+00,  2.17332661E-02,  1.03871045E-05,
                      -2.87122549E-08,  1.25380084E-11,  3.65470533E+04,
                       1.30516215E+01]),
                NASA([966.65, 5000.00],
                     [ 8.97811054E+00,  1.35586731E-02, -4.70087697E-06,
                       8.47361610E-10, -6.05066890E-14,  3.44927227E+04,
                      -2.14573965E+01])),
        transport=gas_transport(geom='nonlinear',
                                diam=5.18,
                                well_depth=357.002,
                                rot_relax=1.0))

species(name='C5H6(119)',
        atoms='C:5 H:6',
        thermo=(NASA([200.00, 1000.00],
                     [ 8.61090000E-01,  1.48040000E-02,  7.21089000E-05,
                      -1.13381000E-07,  4.86900000E-11,  1.48018000E+04,
                       2.13535000E+01]),
                NASA([1000.00, 6000.00],
                     [ 9.97578000E+00,  1.89055000E-02, -6.84115000E-06,
                       1.10993000E-09, -6.66802000E-14,  1.10817000E+04,
                      -3.22095000E+01])),
        transport=gas_transport(geom='nonlinear',
                                diam=5.711,
                                well_depth=410.336))

species(name='C5H7(312)',
        atoms='C:5 H:7',
        thermo=(NASA([200.00, 1386.00],
                     [-1.60087000E+00,  5.38765000E-02, -3.96302000E-05,
                       1.49599000E-08, -2.31995000E-12,  2.31200000E+04,
                       3.35493000E+01]),
                NASA([1386.00, 5000.00],
                     [ 1.47303000E+01,  1.59031000E-02, -5.57730000E-06,
                       8.80605000E-10, -5.16964000E-14,  1.74051000E+04,
                      -5.42671000E+01])),
        transport=gas_transport(geom='nonlinear',
                                diam=5.404,
                                well_depth=377.736))

species(name='C5H5O(324)',
        atoms='C:5 H:5 O:1',
        thermo=(NASA([200.00, 1000.00],
                     [-1.28398000E+00,  4.90299000E-02, -1.35844000E-05,
                      -2.92984000E-08,  1.90821000E-11,  6.37365000E+03,
                       3.08074000E+01]),
                NASA([1000.00, 6000.00],
                     [ 1.33741000E+01,  1.51996000E-02, -5.45685000E-06,
                       8.80945000E-10, -5.27493000E-14,  2.20358000E+03,
                      -4.59569000E+01])),
        transport=gas_transport(geom='nonlinear',
                                diam=6.38,
                                well_depth=480.893))

species(name='C5H5O(335)',
        atoms='C:5 H:5 O:1',
        thermo=(NASA([200.00, 1399.00],
                     [-2.18492000E-01,  5.92100000E-02, -5.89241000E-05,
                       2.97412000E-08, -5.85245000E-12,  1.20601000E+04,
                       2.55969000E+01]),
                NASA([1399.00, 5000.00],
                     [ 1.53178000E+01,  1.27353000E-02, -4.35883000E-06,
                       6.76913000E-10, -3.92771000E-14,  7.60583000E+03,
                      -5.43600000E+01])),
        transport=gas_transport(geom='nonlinear',
                                diam=5.638,
                                well_depth=423.356))

species(name='C5H7(338)',
        atoms='C:5 H:7',
        thermo=(NASA([200.00, 1377.00],
                     [-6.75118000E+00,  6.06462000E-02, -4.01260000E-05,
                       1.22052000E-08, -1.33460000E-12,  2.01365000E+04,
                       5.62695000E+01]),
                NASA([1377.00, 5000.00],
                     [ 1.36630000E+01,  1.68061000E-02, -5.98747000E-06,
                       9.55341000E-10, -5.64952000E-14,  1.27239000E+04,
                      -5.46331000E+01])),
        transport=gas_transport(geom='nonlinear',
                                diam=5.929,
                                well_depth=409.304))

species(name='C5H5O(781)',
        atoms='C:5 H:5 O:1',
        thermo=(NASA([298.00, 1000.00],
                     [-2.95670000E+00,  5.58519000E-02, -3.72416000E-05,
                       4.16244000E-09,  3.92720000E-12,  4.85732000E+03,
                       3.86767000E+01]),
                NASA([1000.00, 3000.00],
                     [ 9.24314000E+00,  2.22013000E-02, -9.31059000E-06,
                       1.71552000E-09, -1.06140000E-13,  1.59084000E+03,
                      -2.40877000E+01])),
        transport=gas_transport(geom='nonlinear',
                                diam=6.181,
                                well_depth=480.593))

species(name='C4H5(782)',
        atoms='C:4 H:5',
        thermo=(NASA([298.00, 1000.00],
                     [-2.63976000E+00,  4.15492000E-02, -2.19210000E-05,
                      -4.65590000E-09,  6.13489000E-12,  3.53738000E+04,
                       3.57018000E+01]),
                NASA([1000.00, 3000.00],
                     [ 6.74672000E+00,  1.72830000E-02, -6.51686000E-06,
                       9.89176000E-10, -3.46049000E-14,  3.28084000E+04,
                      -1.29129000E+01])),
        transport=gas_transport(geom='nonlinear',
                                diam=5.503,
                                well_depth=381.31))

species(name='S(1229)',
        atoms='C:5 H:6 O:1',
        thermo=(NASA([100.00, 1004.91],
                     [ 2.62718027E+00,  1.67832185E-02,  4.98403189E-05,
                      -7.08013533E-08,  2.62391932E-11, -1.06418045E+04,
                       1.69260340E+01]),
                NASA([1004.91, 5000.00],
                     [ 9.60378062E+00,  2.27220558E-02, -9.34021392E-06,
                       1.83922110E-09, -1.36282141E-13, -1.37460277E+04,
                      -2.52348407E+01])),
        transport=gas_transport(geom='nonlinear',
                                diam=5.935,
                                well_depth=437.704))

species(name='S(1230)',
        atoms='C:6 H:8 O:1',
        thermo=(NASA([100.00, 1236.64],
                     [ 6.24814262E-01,  6.85727577E-02, -6.25783160E-05,
                       3.04348175E-08, -5.94044750E-12,  2.21310395E+04,
                       2.57539377E+01]),
                NASA([1236.64, 5000.00],
                     [ 1.42730723E+01,  2.44261922E-02, -9.02974458E-06,
                       1.56684143E-09, -1.04437153E-13,  1.87554664E+04,
                      -4.29897866E+01])),
        transport=gas_transport(geom='nonlinear',
                                diam=6.513,